108

C 0.6158871184073915 14.654751382833899 13.917492739616117
C 2.324946115499884 3.0816012080439954 7.325905137116516
C 0.7229270182618335 4.490822111363332 2.956360535631001
C 16.970386479335502 0.5725134637229161 13.554180266973448
C 0.06529357453939855 11.775205706338427 8.117083806962196
C 15.00045380939879 10.976378811682843 15.67870676087232
C 2.0731840642079886 9.104625998953983 13.041993801717641
C 14.519992541755544 6.952817134314617 6.56146031215461
C 16.101435039615726 0.25854206878917907 17.71282230652864
C 12.978889988140237 1.105616318216351 9.629292090460327
C 2.584285688591919 16.717178566226476 9.731593532996602
C 9.803991751200467 17.87421991855258 14.206650303458717
C 8.057321330177992 9.859731731781924 12.039430048007436
C 13.465927537702273 14.40243566946963 4.874840275154471
C 15.365051055159984 0.4661959574264387 5.195991702277612
C 15.519610137653716 6.379649624417193 12.188413785160227
C 10.572673847780276 3.511608034502379 13.173325629203305
C 5.556059826448255 14.818475951694671 16.807465303717485
C 11.513112806191405 13.681378466669017 0.38263003819386676
C 11.554512283246815 8.519284693716447 1.1067325991796457
C 13.14158398748329 13.098182776611134 9.794865520587624
C 5.954925809767334 0.637054892248591 2.04515707923158
C 2.060466637782629 5.345048173834262 14.819422765505758
C 0.16839303497439584 15.417945884815124 6.989552882513077
C 14.047446658543691 3.5005204251366466 13.414295215887659
C 11.78222216422309 7.256793470616954 10.339304461853924
C 5.506535647252191 6.8743842233205745 14.51503828912186
C 7.561530411460557 10.706402801194457 1.8993572896861517
C 1.6627179620590535 9.61889287462538 5.071175438229392
C 6.802755488662534 0.795504178357074 5.9416511321861005
C 4.741653838319585 7.042509175041264 8.969550711237401
C 4.761695572316542 9.609119085602728 16.545824695678668
C 12.16838906547534 0.07181194367982591 17.055736017959365
C 10.32594614117551 3.5644693554844893 5.247951133689952
C 3.379765416864772 13.015468283680082 4.180529966245139
C 5.979643289663089 4.998523429131161 4.088832974160009
C 2.449051424951872 17.193975955221845 4.800950954719351
C 17.8675633203359 13.305721570358488 4.173229005060649
C 0.43458301580061653 6.535593555268482 6.845056201331552
C 10.462487980862269 10.49559818059254 16.14306234134465
C 6.9928667155192645 3.694354616919922 16.237250374068587
C 6.554558183766741 13.11696639928769 8.065235404521635
C 6.224332365344345 6.603317284460385 0.7913025897312516
C 17.00035713556108 3.5795982468756358 15.84513885262324
C 9.07626869080179 2.5998614670463382 8.857231788545755
C 2.9235092008776737 5.688627943803122 0.24090340988334913
C 8.34041158770548 14.387228500457827 13.103012598220955
C 1.8088505473555745 16.928079987456435 0.24999800140341089
C 17.222458675627283 16.528280932536653 2.8456988885514747
C 4.816898636170384 12.491424465018097 12.751465229159251
C 9.382682071838031 16.544921214270705 3.7377949452510473
C 9.2646330817669 6.083173175054635 2.400131184184083
C 8.102430249948654 8.709432483861008 6.467138025345685
C 12.104293738358514 10.458388813536356 12.940402784502755
C 10.482351384621735 12.997058180812736 6.306119180992885
C 5.190115735181844 17.013949417207954 12.449543992515494
C 11.683474505453221 2.386174405008009 2.1183121508066574
C 4.037183044683557 8.922150301838725 2.443952456946848
C 15.458484405042075 9.42369884814939 3.364831645965721
C 9.982026432282412 16.44361035864848 7.547838226646081
C 14.591566510187805 12.809877589625216 2.0734185367605327
C 15.26043384074198 9.755294864338182 8.987666208273023
C 16.846313531276614 0.27332142301698226 9.379893685239654
C 12.759967210611128 5.4414288489205305 16.284835145181898
C 13.203271073586688 5.191024087991166 3.5280146413950595
C 11.087608015794753 6.634176537754117 6.722250710061288
C 6.725671988798273 4.1376206911822395 12.364061861693678
C 12.191096244936764 13.8563690632091 14.089795486233605
C 7.724177837952416 13.396016194596053 4.067919254403573
C 15.379456347913168 14.587814031274199 16.77843488343891
C 12.737668773972898 10.184201683709523 5.626840766282795
C 9.326023017285753 7.046860630539503 15.456930671210635
C 5.722276877724034 0.38287340204952836 16.323107268853864
C 13.343925301559924 16.831228876327263 2.457659213316493
C 15.255400313278438 3.6398486130727075 9.08425838137753
C 8.41693968719642 16.77231652231129 17.980130362753336
C 5.527095219043743 10.811292266694766 5.720188443867677
C 11.220941016139747 16.540623159366 11.189455255654869
C 8.193080090449618 6.16189010461062 9.647361657778125
C 10.525556942159264 10.711566463293984 9.555653872654684
C 7.138057973978963 12.02524904745287 15.531910813434962
C 0.9841657638954915 10.79004308707201 1.949651243242236
C 3.0983234167699987 13.832706370324246 7.778583413094593
C 1.8611494859130115 2.446399352716525 0.06760831591506777
C 6.605284123901809 0.12747393430537524 9.485305572075337
C 14.176021756927417 16.363209402878105 7.717303712487293
C 5.352543250039339 15.526389360906512 5.789663920109774
C 5.031933160772655 10.397843174508827 9.676160759627118
C 17.01330356325386 8.00147103196256 14.85734146475307
C 0.8211871533908237 6.8585452206865885 10.548033715305097
C 5.935418395518042 4.043931965375041 7.380199963000477
C 5.235830508043516 15.277314214075677 2.245434274636165
C 14.908610059636237 8.024194783194107 0.05621057950488462
C 17.00023128794603 10.30959272470748 12.142444699401617
C 10.288238416325106 3.206158787120632 17.112766872876627
C 4.160258299985945 12.151739878392732 0.732104919841696
C 3.0288162999254533 1.9011342398899658 13.702531545917811
C 0.2805537662938302 3.2987153633371022 11.701809189820054
C 15.632761671026795 2.8464429544482943 2.4053539420094334
C 0.3333629734063248 7.9545776315716346 0.005664902970814456
C 10.829014483165798 11.308877895757716 2.995908081735847
C 3.6265435075450956 3.0804050497518913 10.535684508295246
C 3.594930328211272 2.326950347640637 3.9236948276561203
C 17.052490972740163 3.3114959749688655 6.1601241042554165
C 15.31950159134706 13.316289836840333 12.492631733010839
C 2.276551832579542 11.776757478173911 15.425405498901121
C 17.956203329514718 14.437258171452713 10.455245980341504
C 13.337571074207824 17.54156311480353 13.869938742801219
