108

C -0.10763933559754996 15.040911557417555 14.816105715552249
C 2.7779381388202498 2.620433569765413 6.5050532474202285
C 1.013565368531487 4.43283269863991 3.2511944255437766
C 17.404793416758455 0.5920287502726891 13.396893212208914
C -1.262776699561971 12.148521656121536 8.387213853195215
C 14.806009307257959 11.160892365096545 15.613182247258232
C 2.6414195215244023 9.16213389424117 12.96787822533137
C 15.374354797946662 6.913146549947766 6.345881482817955
C 16.099600438042007 0.1495859290113441 17.0215387576449
C 12.867418004321115 1.280303916894238 10.318200621471005
C 2.6197317658853154 17.236701578289647 8.429934637727968
C 9.860609739465422 17.758409850546528 13.818972476168232
C 8.3378477483647 10.257981087582644 12.523467294553921
C 13.967146685031592 14.153523219044127 5.429329200481766
C 14.907139935442771 -0.13942963693581786 5.395219575434814
C 15.224279833564214 6.924024315887687 12.862914650714915
C 10.685083495811044 3.4604838276057888 13.031185194361045
C 5.222811498216911 14.79400436241501 16.323051848573215
C 11.067625316124028 14.129429485534226 0.26539058726261366
C 11.103601151537559 8.248059187705689 0.5442903073236627
C 13.242659923390177 12.5496060779959 9.453419410012403
C 7.580825874638784 1.745040904790421 1.7560387666491217
C 2.6560321030107987 5.75117168582607 14.642307568182288
C -0.37557218836212525 15.703058676426581 6.725283873059628
C 14.592374740042612 3.1574360767693643 13.058502714297422
C 11.852120423736007 6.496735134422689 11.013966604854469
C 6.014426427469259 7.414737869052297 13.744099350172792
C 8.054215303290004 10.475259995118414 1.6675063532123888
C 1.4714416625384579 9.639377203357677 4.790886976501752
C 6.14105790031504 0.928665657978636 5.337884218280552
C 3.8515280359041086 6.143719921959514 10.834468116397511
C 3.776077894438677 8.719727681557066 16.670537366800747
C 12.08360567580172 -0.39331117904876706 16.869236778686403
C 9.223613347085967 3.0769454921903163 5.115370469684051
C 2.6514398756097632 13.8426068122409 3.722564351839775
C 6.185286514558904 4.937479910133074 3.4270462537875814
C 2.350829136440715 17.394406448266285 4.615909062662639
C 17.24048346412875 12.617859477098754 4.667350945762266
C 1.092714950679275 6.110964255132926 6.937696417326931
C 10.664364787829571 10.900294606854096 15.860796040706774
C 6.131544898651177 4.025144170574832 15.801120532833608
C 7.0941510565222305 12.685520775755133 8.142602917780778
C 6.960180634102307 7.12944085131934 0.06943084937187603
C 17.17086061033063 4.302685905450378 15.667475873497333
C 9.448668292751798 3.189586512416092 9.38002953695037
C 3.6418149234740307 5.190866800904131 0.41324589751824514
C 8.008794166820541 14.274397179084978 13.854552125724512
C 2.2418943750000335 15.882314914703757 0.4529977580958348
C 17.253069200329197 15.968232927885692 2.841514348725231
C 4.909378793711597 12.20396640541647 13.069350793774491
C 9.378269299193084 16.6497971118832 3.041655262673039
C 9.668988499397864 4.944472880493969 1.688776067951147
C 8.770592977093562 10.030347404649893 5.806691774976224
C 12.681856750718694 10.389756018637229 12.546923156827447
C 10.61444412212117 13.132237225671922 6.851871042343884
C 5.969319645758047 17.86114899250841 13.610319019691348
C 11.503345759798052 1.6329571421689917 2.05583890188025
C 4.305778938842122 8.643856426831508 2.4045584059622023
C 15.881488820188165 9.32276103673928 3.3595888742729136
C 8.744036369482368 16.46043781681538 6.869822455210634
C 14.766637212981028 12.678922009708632 1.7593558169921109
C 14.480792364452894 8.826505197799076 9.530067289175003
C 17.104444093987556 1.0476916114859032 9.552786247419515
C 13.01352494311057 5.455411557268808 15.691142636175169
C 13.35587584446967 6.121968703041049 3.024354499921622
C 11.595083987445788 7.004671735652619 7.160399943937673
C 6.6334222650412915 3.689807461108279 12.016064015872043
C 11.643549161748258 14.298447103535185 14.493837231242852
C 7.787516550008437 13.435786945229129 4.159076313053392
C 14.594165580731792 14.79048582184613 16.623440058537387
C 13.350523597421361 10.39828844054041 6.256908321895614
C 9.359390243534808 6.387267113158617 15.266636320984619
C 4.907037721316162 0.5928613905566205 17.253228746619403
C 13.587034341886055 16.357708815494313 2.098579181230804
C 15.313690606863664 4.7972626794661695 9.613517767359888
C 8.353015757560426 16.853475365832185 17.290911301760623
C 4.949024532051243 11.270232535965715 5.272967145490994
C 11.430784478068553 15.603581063950658 10.964937533486204
C 7.99789559586925 6.876865080731173 10.276471395954408
C 10.563109222876445 9.9110072786827 9.309974694096404
C 6.804121882510657 10.967799449228316 16.047139562789617
C 0.8176473312007992 11.446979073147281 1.4059487769641474
C 2.3452255405181446 13.23944236849688 7.462775439779811
C 1.3110943518630207 2.020262950650411 -0.05545216899419378
C 6.2898180851028815 0.48373093360895963 9.15465853129726
C 14.571544658261992 16.061510200278374 8.89657073331688
C 5.188886572565776 15.373367086183077 6.1525188977158525
C 5.302343427335604 9.703998304260988 10.144583655802343
C 17.814142247324895 8.30367549187075 15.294609816374592
C 0.11773307143578311 7.479852346004239 10.436475870171341
C 5.992395730802159 4.079077231728794 8.006326522311586
C 5.530026022494868 16.35853090413761 2.397553166729788
C 14.975794821114013 8.01970686463262 -0.12196898242541565
C 16.62647059243402 10.50052597606431 12.230408364640944
C 9.658398683619922 2.604908060604222 16.629159092938522
C 4.687951774381509 12.210252697904695 1.066066084597287
C 2.8359383851674806 2.0738008821883747 14.351700918384381
C 0.24064385932857987 4.084038108137788 12.048641209740184
C 15.922854365149837 1.9740093632038225 2.396955123863383
C 0.7831004953212993 7.677958692006162 0.9724415785905914
C 11.304972814110597 11.830299961170837 3.3258009149694923
C 3.272751443104247 2.4246451369704536 10.458331066635795
C 3.915489270314343 2.0548697606567368 2.600165267980459
C 16.87387419077907 3.0873754244664027 6.233964232015966
C 14.867008807539495 13.845304881438858 12.607703187748088
C 2.362281332801238 12.120623213802496 15.948449630836743
C 17.847807952845972 15.304616370185832 10.590382575306132
C 13.805413630894897 17.350126526787154 13.526110057658649
